data/pgmodel/input.json
{
  "version": "1.0",
  "type": "input",
  "is_batch": false,
  "attributes": {},
  "data": {
    "node": [
      {
        "id": 1,
        "u_rated": 20000.0
      },
      {
        "id": 2,
        "u_rated": 20000.0
      },
      {
        "id": 3,
        "u_rated": 230000.0
      },
      {
        "id": 4,
        "u_rated": 230000.0
      },
      {
        "id": 5,
        "u_rated": 230000.0
      },
      {
        "id": 6,
        "u_rated": 230000.0
      },
      {
        "id": 7,
        "u_rated": 230000.0
      },
      {
        "id": 8,
        "u_rated": 230000.0
      },
      {
        "id": 9,
        "u_rated": 230000.0
      },
      {
        "id": 10,
        "u_rated": 20000.0
      },
      {
        "id": 11,
        "u_rated": 20000.0
      }
    ],
    "line": [
      {
        "id": 12,
        "from_node": 3,
        "to_node": 4,
        "from_status": 1,
        "to_status": 1,
        "r1": 2.645,
        "x1": 26.45,
        "c1": 1.10248e-7,
        "tan1": 0.0
      },
      {
        "id": 13,
        "from_node": 4,
        "to_node": 5,
        "from_status": 1,
        "to_status": 1,
        "r1": 1.587,
        "x1": 15.87,
        "c1": 2.9397800000000002e-8,
        "tan1": 0.0
      },
      {
        "id": 14,
        "from_node": 5,
        "to_node": 6,
        "from_status": 1,
        "to_status": 1,
        "r1": 5.814,
        "x1": 58.19,
        "c1": 9.652511e-7,
        "tan1": 0.0
      },
      {
        "id": 15,
        "from_node": 5,
        "to_node": 6,
        "from_status": 1,
        "to_status": 1,
        "r1": 5.814,
        "x1": 58.19,
        "c1": 9.652511e-7,
        "tan1": 0.0
      },
      {
        "id": 16,
        "from_node": 6,
        "to_node": 7,
        "from_status": 1,
        "to_status": 1,
        "r1": 5.814,
        "x1": 58.19,
        "c1": 9.652511e-7,
        "tan1": 0.0
      },
      {
        "id": 17,
        "from_node": 6,
        "to_node": 7,
        "from_status": 1,
        "to_status": 1,
        "r1": 5.814,
        "x1": 58.19,
        "c1": 9.652511e-7,
        "tan1": 0.0
      },
      {
        "id": 18,
        "from_node": 7,
        "to_node": 8,
        "from_status": 1,
        "to_status": 1,
        "r1": 1.587,
        "x1": 15.87,
        "c1": 2.9397800000000002e-8,
        "tan1": 0.0
      },
      {
        "id": 19,
        "from_node": 8,
        "to_node": 9,
        "from_status": 1,
        "to_status": 1,
        "r1": 1.3225,
        "x1": 13.225,
        "c1": 5.5124e-8,
        "tan1": 0.0
      }
    ],
    "sym_gen": [
      {
        "id": 20,
        "node": 1,
        "status": 1,
        "type": 0,
        "p_specified": 7.0e7,
        "q_specified": 1.8e7
      },
      {
        "id": 21,
        "node": 2,
        "status": 1,
        "type": 0,
        "p_specified": 7.0e7,
        "q_specified": 2.5e7
      },
      {
        "id": 22,
        "node": 10,
        "status": 1,
        "type": 0,
        "p_specified": 7.0e7,
        "q_specified": 2.0e7
      }
    ],
    "shunt": [
      {
        "id": 23,
        "node": 5,
        "status": 1,
        "g1": 3.780719e-6,
        "b1": 3.780718999999999e-5
      },
      {
        "id": 24,
        "node": 6,
        "status": 1,
        "g1": 6.616257e-6,
        "b1": 6.616257e-5
      }
    ],
    "transformer": [
      {
        "id": 25,
        "from_node": 3,
        "to_node": 1,
        "from_status": 1,
        "to_status": 1,
        "u1": 230000.0,
        "u2": 20000.0,
        "sn": 9.0e8,
        "uk": 0.03,
        "pk": 0.0,
        "i0": 0.001,
        "p0": 1000.0,
        "winding_from": 1,
        "winding_to": 1,
        "clock": 0,
        "tap_side": 0,
        "tap_pos": 0,
        "tap_min": -5,
        "tap_max": 5,
        "tap_nom": 0,
        "tap_size": 2300.0
      },
      {
        "id": 26,
        "from_node": 4,
        "to_node": 2,
        "from_status": 1,
        "to_status": 1,
        "u1": 230000.0,
        "u2": 20000.0,
        "sn": 9.0e8,
        "uk": 0.03,
        "pk": 0.0,
        "i0": 0.001,
        "p0": 1000.0,
        "winding_from": 1,
        "winding_to": 1,
        "clock": 0,
        "tap_side": 0,
        "tap_pos": 0,
        "tap_min": -5,
        "tap_max": 5,
        "tap_nom": 0,
        "tap_size": 2300.0
      },
      {
        "id": 27,
        "from_node": 9,
        "to_node": 11,
        "from_status": 1,
        "to_status": 1,
        "u1": 230000.0,
        "u2": 20000.0,
        "sn": 9.0e8,
        "uk": 0.03,
        "pk": 0.0,
        "i0": 0.001,
        "p0": 1000.0,
        "winding_from": 1,
        "winding_to": 1,
        "clock": 0,
        "tap_side": 0,
        "tap_pos": 0,
        "tap_min": -5,
        "tap_max": 5,
        "tap_nom": 0,
        "tap_size": 2300.0
      },
      {
        "id": 28,
        "from_node": 8,
        "to_node": 10,
        "from_status": 1,
        "to_status": 1,
        "u1": 230000.0,
        "u2": 20000.0,
        "sn": 9.0e8,
        "uk": 0.03,
        "pk": 0.0,
        "i0": 0.001,
        "p0": 1000.0,
        "winding_from": 1,
        "winding_to": 1,
        "clock": 0,
        "tap_side": 0,
        "tap_pos": 0,
        "tap_min": -5,
        "tap_max": 5,
        "tap_nom": 0,
        "tap_size": 2300.0
      }
    ],
    "sym_load": [
      {
        "id": 29,
        "node": 5,
        "status": 1,
        "type": 0,
        "p_specified": 9.6e7,
        "q_specified": 1.0e7
      },
      {
        "id": 30,
        "node": 6,
        "status": 1,
        "type": 0,
        "p_specified": 1.76e8,
        "q_specified": 1.0e7
      }
    ],
    "source": [
      {
        "id": 31,
        "node": 11,
        "status": 1,
        "u_ref": 1.03,
        "sk": 1.0e40,
        "rx_ratio": 0.1,
        "z01_ratio": 1.0
      }
    ]
  }
}
